28
Properties=species:S:1:pos:R:3:momenta:R:3:forces:R:3:energies:R:1 energy=0.0 free_energy=0.0 pbc="F F F" source="https://www.chemspider.com/Chemical-Structure.503143.html"
O        2.76446786       3.90392857       0.00000000       0.00000000       0.00000000       0.00000000       0.00000000       0.00000000       0.00000000       0.00000000
O        1.03246786       3.90392857       0.00000000       0.00000000       0.00000000       0.00000000       0.00000000       0.00000000       0.00000000       0.00000000
O       -3.29773214      -3.59607143       0.00000000       0.00000000       0.00000000       0.00000000       0.00000000       0.00000000       0.00000000       0.00000000
O       -4.16373214      -2.09607143       0.00000000       0.00000000       0.00000000       0.00000000       0.00000000       0.00000000       0.00000000       0.00000000
N        0.16636786       0.40392857       0.00000000       0.00000000       0.00000000       0.00000000       0.00000000       0.00000000       0.00000000       0.00000000
N        0.16636786      -0.59607143       0.00000000       0.00000000       0.00000000       0.00000000       0.00000000       0.00000000       0.00000000       0.00000000
N        1.89846786       3.40392857       0.00000000       0.00000000       0.00000000       0.00000000       0.00000000       0.00000000       0.00000000       0.00000000
N       -3.29773214      -2.59607143       0.00000000       0.00000000       0.00000000       0.00000000       0.00000000       0.00000000       0.00000000       0.00000000
C        1.03246786       0.90392857       0.00000000       0.00000000       0.00000000       0.00000000       0.00000000       0.00000000       0.00000000       0.00000000
C       -0.69963214      -1.09607143       0.00000000       0.00000000       0.00000000       0.00000000       0.00000000       0.00000000       0.00000000       0.00000000
C        1.89846786       2.40392857       0.00000000       0.00000000       0.00000000       0.00000000       0.00000000       0.00000000       0.00000000       0.00000000
C        1.03246786       1.90392857       0.00000000       0.00000000       0.00000000       0.00000000       0.00000000       0.00000000       0.00000000       0.00000000
C       -2.43163214      -2.09607143       0.00000000       0.00000000       0.00000000       0.00000000       0.00000000       0.00000000       0.00000000       0.00000000
C       -0.69963214      -2.09607143       0.00000000       0.00000000       0.00000000       0.00000000       0.00000000       0.00000000       0.00000000       0.00000000
C       -1.56563214      -0.59607143       0.00000000       0.00000000       0.00000000       0.00000000       0.00000000       0.00000000       0.00000000       0.00000000
C        1.89846786       0.40392857       0.00000000       0.00000000       0.00000000       0.00000000       0.00000000       0.00000000       0.00000000       0.00000000
C       -1.56563214      -2.59607143       0.00000000       0.00000000       0.00000000       0.00000000       0.00000000       0.00000000       0.00000000       0.00000000
C       -2.43163214      -1.09607143       0.00000000       0.00000000       0.00000000       0.00000000       0.00000000       0.00000000       0.00000000       0.00000000
C        2.76446786       1.90392857       0.00000000       0.00000000       0.00000000       0.00000000       0.00000000       0.00000000       0.00000000       0.00000000
C        2.76446786       0.90392857       0.00000000       0.00000000       0.00000000       0.00000000       0.00000000       0.00000000       0.00000000       0.00000000
H        0.49546786       2.21392857       0.00000000       0.00000000       0.00000000       0.00000000       0.00000000       0.00000000       0.00000000       0.00000000
H       -0.16273214      -2.40607143       0.00000000       0.00000000       0.00000000       0.00000000       0.00000000       0.00000000       0.00000000       0.00000000
H       -1.56563214       0.02392857       0.00000000       0.00000000       0.00000000       0.00000000       0.00000000       0.00000000       0.00000000       0.00000000
H        1.89846786      -0.21607143       0.00000000       0.00000000       0.00000000       0.00000000       0.00000000       0.00000000       0.00000000       0.00000000
H       -1.56563214      -3.21607143       0.00000000       0.00000000       0.00000000       0.00000000       0.00000000       0.00000000       0.00000000       0.00000000
H       -2.96863214      -0.78607143       0.00000000       0.00000000       0.00000000       0.00000000       0.00000000       0.00000000       0.00000000       0.00000000
H        3.30136786       2.21392857       0.00000000       0.00000000       0.00000000       0.00000000       0.00000000       0.00000000       0.00000000       0.00000000
H        3.30136786       0.59392857       0.00000000       0.00000000       0.00000000       0.00000000       0.00000000       0.00000000       0.00000000       0.00000000
11
source="https://en.wikipedia.org/wiki/XYZ_file_format"
C       -0.180226841      0.360945118     -1.120304970
C       -0.180226841      1.559292118     -0.407860970
C       -0.180226841      1.503191118      0.986935030
N       -0.180226841      0.360945118      1.29018350
C       -0.180226841     -0.781300882      0.986935030
C       -0.180226841     -0.837401882     -0.407860970
H       -0.180226841      0.360945118     -2.206546970
H       -0.180226841      2.517950118     -0.917077970
H       -0.180226841      2.421289118      1.572099030
H       -0.180226841     -1.699398882      1.572099030
H       -0.180226841     -1.796059882     -0.917077970
56
Properties=species:S:1:pos:R:3:forces:R:3 energy=-631471.052099 pbc="F F F" source="https://www.sgdml.org/#datasets"
O       -0.61779500      -1.89294000      -7.30903000      36.59950000      -7.87713000     -40.86550000
O       -2.23095000      -2.74921000      -8.70069000      -2.78441000     -14.34670000     -43.28810000
C       -2.34178000      -2.31916000      -5.06858000      21.34070000      18.63900000      42.65690000
C       -2.15376000      -1.13203000      -2.17440000     -27.66600000       5.48763000       3.81910000
C       -1.00803000       0.17986000       0.41808700     -92.33180000      38.47070000      42.51920000
C       -0.49021000       2.16202000       3.07870000      19.26580000      -2.89276000     -12.41090000
C       -2.74719000      -1.98407000      -6.46814000      -2.65674000       1.06915000     -21.30610000
C       -1.51707000      -1.09996000      -4.52825000      13.28920000     -14.35430000     -60.76470000
C        1.90065000       3.40370000       4.73494000     -42.15190000     -42.21200000      49.31460000
C       -1.49021000      -0.50049800      -3.34700000     -12.46850000     -25.09790000      -5.38267000
C       -2.83995000      -0.05144060      -1.31374000      -8.04681000     -53.55990000     -59.27470000
C       -2.30565000       0.52911300      -0.27930700      15.17750000      27.19740000      17.69640000
C       -1.55684000       0.14419900       1.85964000      27.89950000     -26.14350000      34.10250000
C        2.60606000       0.06525560       5.18346000      70.21420000     -23.13460000      28.92930000
C       -1.27358000       0.89278800       2.97377000     -16.94400000     -22.22850000     -27.35280000
C       -0.59054300       2.62112000       4.50827000      96.06260000      27.82110000      10.61200000
C        0.44927800       3.03617000       5.32834000     -25.89770000      -7.51079000     -45.42840000
C        2.85939000       2.62383000       5.66787000      91.13760000      30.32930000      19.84060000
C        3.33346000       1.33601000       5.75464000     -74.90950000       1.30917000      -7.31138000
C        3.72923000      -0.64575700       4.39424000     -24.72270000       2.85445000      36.22500000
C        2.64821000      -1.03563000       2.09329000      -4.98734000      -9.28332000       0.31374100
C        3.73266000      -1.07508000       3.14233000     -17.15850000      -7.65823000      -3.03227000
C       -1.87096000      -2.26892000      -7.68124000      17.83380000      28.40230000      78.26530000
C        2.82670000       0.23665500       1.21066000      -7.76506000     -12.34780000     -18.18270000
H       -3.20401000      -2.48894000      -4.35605000      13.44690000      -4.14849000     -22.13090000
H       -1.67288000      -3.19142000      -5.11150000      -3.62975000      -4.49173000      10.20310000
H       -1.34578000      -1.65919000      -1.73208000      22.98490000     -10.07520000      31.54620000
H       -2.79747000      -2.00285000      -2.48807000      -0.88886100      22.84950000       4.68296000
H       -0.63194400      -0.67070200      -0.02074000      27.03680000     -55.05090000      -8.44039000
H       -0.39740300       0.99960200       0.23758800      40.41540000      37.74010000      -1.11682000
H       -0.79724200       2.91771000       2.33356000     -11.80260000       0.90833800       3.94416000
H        0.55706100       1.95390000       2.67527000     -13.93880000       5.82075000      22.98080000
H       -3.04680000      -0.96345200      -6.44948000      -2.42687000      32.27740000      -9.57154000
H       -3.57734000      -2.46170000      -6.85374000     -59.31750000     -33.09180000       1.49080000
H       -0.87858100      -0.76429100      -5.39539000      -9.43326000       5.10677000      25.66860000
H        1.97022000       3.11115000       3.65931000      -2.14343000      -1.96994000      15.94820000
H        1.93034000       4.51312000       4.76946000      13.91140000     -11.26950000       7.21699000
H       -0.85776900       0.34363400      -3.14053000       6.89381000      11.96550000      -1.36662000
H       -3.76564000       0.22767900      -1.82269000      -3.46630000      11.21590000      11.61060000
H       -2.76949000       1.39772000       0.17154800      -9.90213000       5.46334000       0.66971600
H       -2.23807000      -0.71438700       2.07035000      11.56400000       8.85857000      -7.54918000
H        1.71279000       0.11760100       4.63754000     -29.70830000      24.81910000     -29.06390000
H        2.26357000      -0.64647500       6.00968000      17.07190000      19.01630000      -6.40311000
H       -1.66027000       0.53592600       3.95751000      -3.67188000       4.55382000     -18.24520000
H       -1.48742000       2.67903000       5.03041000     -50.05820000     -14.41360000       9.48415000
H        0.11363900       3.05410000       6.41879000      28.01800000      14.09110000     -26.63510000
H        3.62296000       3.27460000       6.34780000     -44.16960000     -17.54200000     -35.69440000
H        4.15327000       1.10354000       6.45527000      -7.86850000       3.68577000      -6.38510000
H        4.62137000      -0.88396500       5.00111000      -4.37564000       8.36635000      -4.45270000
H        2.74336000      -1.90160000       1.38776000       3.04656000       5.81824000      14.76290000
H        1.56195000      -1.15561000       2.53174000      41.70240000      14.41120000     -15.10130000
H        4.68324000      -1.50735000       2.92435000      15.39440000     -12.93150000     -22.39220000
H        2.18129000       0.00560723       0.30490600      20.10520000      19.10540000      11.16520000
H        3.90447000       0.56836200       0.94690800     -34.73360000     -22.37030000       6.71042000
H        2.38752000       1.05522000       1.76330000      -5.08969000      15.31120000       1.49110000
H        0.01487540      -2.06699000      -8.06457000     -13.29610000       3.03741000      15.27810000
9
Properties=species:S:1:pos:R:3:forces:R:3 energy=-97196.24467742712 pbc="F F F"
C        0.22166763       0.09120568       0.54278145      39.71176753      -9.11006045     -45.24486791
C       -1.24683537       0.21522023       0.35444189       2.18940728     -27.44504495      76.35189644
O        0.93344919      -0.20966486      -0.83787157     -22.80645555      21.96133984      52.10070996
H        0.63025086       0.97218848       1.06265278      10.00383349       3.94364269     -17.67370590
H        0.51667627      -0.75181974       1.15127435      -1.91401136     -10.86262399      12.58758429
H       -1.57960612       0.77075531       1.27647885      -8.50269695      -1.82301291     -22.24947891
H       -1.49689964       0.63523409      -0.55543443     -15.83180657      31.88208689     -44.09392584
H       -1.69278500      -0.78076452       0.43211552      -7.09018133      -2.91777996      -5.18334405
H        1.02038148      -1.17040437      -0.75863612       4.21095827      -5.67579782      -6.72981724